/*--------------------------------*- C++ -*----------------------------------*\
  =========                 |
  \\      /  F ield         | OpenFOAM: The Open Source CFD Toolbox
   \\    /   O peration     | Website:  https://openfoam.org
    \\  /    A nd           | Version:  8
     \\/     M anipulation  |
\*---------------------------------------------------------------------------*/
FoamFile
{
    version     2.0;
    format      ascii;
    class       dictionary;
    object      blockMeshDict;
}
// * * * * * * * * * * * * * * * * * * * * * * * * * * * * * * * * * * * * * //

convertToMeters 1;

vertices
(
    (0 0 0)
    (4 0 0)
	(4 1 0)
    (0 1 0)
    (0 0 0.1)
    (4 0 0.1)
    (4 1 0.1)
    (0 1 0.1)
);

blocks
(
    hex (0 1 2 3 4 5 6 7) (400 100 1) simpleGrading (1 1 1)
);

edges
(
);

boundary
(
    leftWall
    {
        type wall;
        faces
        (
            (0 3 7 4)
        );
    }
    rightWall
    {
        type wall;
        faces
        (
            (5 1 2 6)
        );
    }
    lowerWall
    {
        type wall;
        faces
        (
            (0 1 5 4)
        );
    }
    atmosphere
    {
        type patch;
        faces
        (
            (2 3 7 6)
        );
    }
);

mergePatchPairs
(
);

// ************************************************************************* //
